22
NoName  0.000000
C -6.0671  4.3852 -0.2924
N -4.8869  3.6723  0.2700
C -4.8789  2.2607 -0.2044
N -6.1259  1.5894  0.2558
C -7.3123  2.2919 -0.3066
N -7.3081  3.7032  0.1683
C -4.9429  3.7026  1.7578
C -6.1882  1.6092  1.7435
C -7.3763  3.7337  1.6555
N -6.1896  3.0240  2.2082
H -6.0683  5.3337  0.0243
H -6.0254  4.3669 -1.2914
H -4.8374  2.2428 -1.2034
H -4.0836  1.7851  0.1714
H -7.2704  2.2739 -1.3056
H -8.1483  1.8371  0.0006
H -4.1476  3.2267  2.1332
H -4.9443  4.6512  2.0741
H -7.0243  1.1545  2.0504
H -5.3926  1.1337  2.1189
H -7.3773  4.6823  1.9719
H -8.2123  3.2786  1.9624
